Exec : qmake
Exec : make -j8
Exec : ./LibraryManagmentSystem
Exec : git clean -f